Circuit: * C:\Users\adity\Desktop\Final_one_bro\CE_AMP.asc

Warning: Multiple definitions of model "2scr375p" Type: BJT
Warning: Multiple definitions of model "bc857b" Type: BJT
Warning: Multiple definitions of model "bc847c" Type: BJT
Warning: Multiple definitions of model "bc847b" Type: BJT
Direct Newton iteration for .op point succeeded.

Date: Fri Jan 17 21:54:03 2025
Total elapsed time: 0.083 seconds.

tnom = 27
temp = 27
method = modified trap
totiter = 3060
traniter = 3054
tranpoints = 1194
accept = 1095
rejected = 99
matrix size = 14
fillins = 1
solver = Normal
Avg thread counts: 2.3/4.4/4.4/2.3
Matrix Compiler1:      45 opcodes  0.4/[0.2]/0.2
Matrix Compiler2: 1.06 KB object code size  0.1/0.2/[0.1]

