Circuit: * C:\Users\adity\Desktop\Final_one_bro\Differential_AMP.asc

Warning: Multiple definitions of model "2scr375p" Type: BJT
Warning: Multiple definitions of model "bc857b" Type: BJT
Warning: Multiple definitions of model "bc847c" Type: BJT
Warning: Multiple definitions of model "bc847b" Type: BJT
Direct Newton iteration for .op point succeeded.

Date: Fri Jan 17 21:52:30 2025
Total elapsed time: 0.107 seconds.

tnom = 27
temp = 27
method = modified trap
totiter = 2255
traniter = 2242
tranpoints = 1122
accept = 1071
rejected = 51
matrix size = 48
fillins = 68
solver = Normal
Avg thread counts: 2.8/4.6/4.6/2.8
Matrix Compiler1: 5.67 KB object code size  2.0/0.8/[0.4]
Matrix Compiler2: 5.03 KB object code size  0.6/0.7/[0.4]

