Circuit: * C:\Users\adity\Desktop\Final_one_bro\Power_Amp.asc

Warning: Multiple definitions of model "2scr375p" Type: BJT
Warning: Multiple definitions of model "bc857b" Type: BJT
Warning: Multiple definitions of model "bc847c" Type: BJT
Warning: Multiple definitions of model "bc847b" Type: BJT
Direct Newton iteration for .op point succeeded.

Date: Fri Jan 17 22:04:19 2025
Total elapsed time: 0.097 seconds.

tnom = 27
temp = 27
method = modified trap
totiter = 3452
traniter = 3445
tranpoints = 1721
accept = 1341
rejected = 380
matrix size = 18
fillins = 17
solver = Normal
Avg thread counts: 2.2/3.3/3.3/2.2
Matrix Compiler1: 2.04 KB object code size  0.7/0.3/[0.2]
Matrix Compiler2: 1.73 KB object code size  0.2/0.3/[0.2]

