Circuit: * C:\Users\adity\Desktop\Final_one_bro\Project_1_Final.asc

Warning: Multiple definitions of model "2scr375p" Type: BJT
Warning: Multiple definitions of model "bc857b" Type: BJT
Warning: Multiple definitions of model "bc847c" Type: BJT
Warning: Multiple definitions of model "bc847b" Type: BJT
WARNING: Node N013 is floating.

Direct Newton iteration for .op point succeeded.

Date: Fri Jan 17 21:50:05 2025
Total elapsed time: 0.343 seconds.

tnom = 27
temp = 27
method = modified trap
totiter = 24559
traniter = 24546
tranpoints = 8735
accept = 5885
rejected = 2850
matrix size = 97
fillins = 171
solver = Normal
Avg thread counts: 1.2/3.2/1.5/1.2
Matrix Compiler1: 15.21 KB object code size  3.1/1.1/[0.7]
Matrix Compiler2: 11.18 KB object code size  1.0/1.2/[0.7]

